Version 4
SHEET 1 1476 1428
WIRE -112 -208 -144 -208
WIRE -144 -176 -144 -208
WIRE 240 -144 192 -144
WIRE 240 -112 240 -144
WIRE 608 -96 400 -96
WIRE 880 -96 688 -96
WIRE -48 -80 -336 -80
WIRE 144 -80 16 -80
WIRE -112 -48 -112 -208
WIRE 624 -48 512 -48
WIRE 512 0 512 -48
WIRE 1072 0 992 0
WIRE 1072 32 1072 0
WIRE 992 48 992 0
WIRE 192 64 192 -144
WIRE 624 64 624 32
WIRE 720 64 624 64
WIRE 880 64 880 -96
WIRE 880 64 800 64
WIRE -112 80 -112 32
WIRE -16 80 -112 80
WIRE 144 80 144 -80
WIRE 144 80 64 80
WIRE 992 128 800 128
WIRE 192 144 64 144
WIRE 800 144 800 128
WIRE 64 160 64 144
WIRE 624 160 624 64
WIRE 768 160 624 160
WIRE -112 176 -112 80
WIRE 32 176 -112 176
WIRE 880 176 880 64
WIRE 880 176 832 176
WIRE 944 176 880 176
WIRE 144 192 144 80
WIRE 144 192 96 192
WIRE 288 192 144 192
WIRE 400 192 400 -96
WIRE 400 192 352 192
WIRE 496 192 400 192
WIRE 560 192 496 192
WIRE 672 192 624 192
WIRE 768 192 672 192
WIRE -496 208 -592 208
WIRE -336 208 -336 -80
WIRE -336 208 -416 208
WIRE -272 208 -336 208
WIRE -64 208 -192 208
WIRE 32 208 -64 208
WIRE 672 256 672 192
WIRE -592 272 -592 208
WIRE -336 272 -336 208
WIRE -64 272 -64 208
WIRE 496 272 496 192
WIRE 800 288 800 208
WIRE 64 320 64 224
WIRE 496 384 496 336
WIRE 672 384 672 336
WIRE 672 384 496 384
WIRE -592 416 -592 352
WIRE -336 416 -336 352
WIRE -336 416 -592 416
WIRE 496 416 496 384
WIRE 800 416 800 368
WIRE -336 432 -336 416
WIRE -64 432 -64 336
WIRE 64 448 64 400
FLAG -336 432 0
FLAG -64 432 0
FLAG -144 -176 0
FLAG 496 416 0
FLAG 512 0 0
FLAG 944 176 out
IOPIN 944 176 Out
FLAG 800 416 0
FLAG 64 448 0
FLAG 240 -112 0
FLAG 1072 32 0
SYMBOL OpAmps\\UniversalOpAmp 64 192 R0
SYMATTR InstName U1
SYMATTR Value LM324
SYMBOL res -400 192 R90
WINDOW 0 0 56 VBottom 2
WINDOW 3 32 56 VTop 2
SYMATTR InstName R1
SYMATTR Value 6430
SYMBOL res 80 64 R90
WINDOW 0 0 56 VBottom 2
WINDOW 3 32 56 VTop 2
SYMATTR InstName R3
SYMATTR Value 10k
SYMBOL res -96 48 R180
WINDOW 0 36 76 Left 2
WINDOW 3 36 40 Left 2
SYMATTR InstName R4
SYMATTR Value 6210
SYMBOL res -320 368 R180
WINDOW 0 36 76 Left 2
WINDOW 3 36 40 Left 2
SYMATTR InstName R5
SYMATTR Value 1500
SYMBOL voltage -592 256 R0
WINDOW 123 24 124 Left 2
WINDOW 39 0 0 Left 0
SYMATTR Value2 AC 1
SYMATTR InstName V1
SYMATTR Value SINE()
SYMBOL res 816 48 R90
WINDOW 0 0 56 VBottom 2
WINDOW 3 32 56 VTop 2
SYMATTR InstName R8
SYMATTR Value 10k
SYMBOL res 640 48 R180
WINDOW 0 36 76 Left 2
WINDOW 3 36 40 Left 2
SYMATTR InstName R9
SYMATTR Value 6210
SYMBOL cap 480 272 R0
SYMATTR InstName C3
SYMATTR Value 8.1n
SYMBOL cap 624 176 R90
WINDOW 0 0 32 VBottom 2
WINDOW 3 32 32 VTop 2
SYMATTR InstName C4
SYMATTR Value 10n
SYMBOL res 656 240 R0
SYMATTR InstName R11
SYMATTR Value 20.63k
SYMBOL res 704 -112 R90
WINDOW 0 0 56 VBottom 2
WINDOW 3 32 56 VTop 2
SYMATTR InstName R6
SYMATTR Value 20.63k
SYMBOL voltage 800 384 R180
WINDOW 0 24 96 Left 2
WINDOW 3 24 16 Left 2
WINDOW 123 0 0 Left 0
WINDOW 39 0 0 Left 0
SYMATTR InstName V2
SYMATTR Value 10
SYMBOL voltage 64 416 R180
WINDOW 0 24 96 Left 2
WINDOW 3 24 16 Left 2
WINDOW 123 0 0 Left 0
WINDOW 39 0 0 Left 0
SYMATTR InstName V3
SYMATTR Value 10
SYMBOL voltage 192 160 R180
WINDOW 0 24 96 Left 2
WINDOW 3 24 16 Left 2
WINDOW 123 0 0 Left 0
WINDOW 39 0 0 Left 0
SYMATTR InstName V4
SYMATTR Value 10
SYMBOL voltage 992 144 R180
WINDOW 0 24 96 Left 2
WINDOW 3 24 16 Left 2
WINDOW 123 0 0 Left 0
WINDOW 39 0 0 Left 0
SYMATTR InstName V5
SYMATTR Value 10
SYMBOL OpAmps\\UniversalOpAmp 800 176 R0
SYMATTR InstName U2
SYMATTR Value LM324
SYMBOL cap 352 176 R90
WINDOW 0 0 32 VBottom 2
WINDOW 3 32 32 VTop 2
SYMATTR InstName C5
SYMATTR Value 1.9n
SYMBOL res -176 192 R90
WINDOW 0 0 56 VBottom 2
WINDOW 3 32 56 VTop 2
SYMATTR InstName R2
SYMATTR Value 1200
SYMBOL cap -80 272 R0
SYMATTR InstName C1
SYMATTR Value 100n
SYMBOL cap 16 -96 R90
WINDOW 0 0 32 VBottom 2
WINDOW 3 32 32 VTop 2
SYMATTR InstName C2
SYMATTR Value 100n
TEXT -1024 -184 Left 2 !.SUBCKT LM324 1 2 3 4 5 DUMMY\nR44 4 6 4E4\nI1 4 7 0.5E-6\nQ1 4 8 9 QPI\nQ2 4 2 10 QPA\nQ3 9 9 11 QPI\nQ4 10 10 11 QPI\nQ5 12 13 4 QNQ\nQ6 13 13 4 QNQ\nQ7 4 12 14 QPQ\nQ8 3 14 6 QNQ\nQ9 15 6 4 QNQ\nQ10 3 15 16 QNQ\nQ11 3 16 17 QNQ\nR67 17 16 4E4\nR68 5 17 18\nQ12 4 15 5 QPQ\nQ13 15 17 5 QNQ\nI2 18 3 120E-9\nI3 19 3 60E-9\nI4 20 3 1E-6\nQ14 11 18 3 QPQ\nQ15 14 19 3 QPQ\nQ16 5 7 4 QNQ\nQ17 15 20 3 QPQ\nC15 21 22 4.8E-12\nR69 12 21 3\nR70 12 15 3E9\nE2 23 8 3 0 -10E-6\nV51 23 1 1.56E-3\nI6 3 4 5E-6\nR71 4 3 4.5E5\nQ18 12 9 11 QPQ\nQ19 13 10 11 QPQ\nC17 12 13 8E-12\nC18 6 15 1E-12\nC21 3 24 100E-15\nR78 11 24 3E5\nC22 1 2 0.23E-12\nC23 2 0 0.79E-12\nC24 1 0 0.79E-12\nE3 22 0 15 0 2\nC25 5 0 50E-15\nQ20 25 25 0 QNQ\nG1 3 4 VT 0 3E-4\nI7 0 25 1E-3\nV53 25 26 0.25\nR79 0 26 1E6\nE4 VT 0 27 26 1\nR80 0 VT 1E6\nV54 27 0 0.55\nR81 0 27 1E6\n.MODEL QPQ PNP IKF=3E-3 RC=300 KF=4.8E-17 BR=1\n.MODEL QPA PNP IKF=3E-3 RC=380 IS=1.01E-16 VAF=245 RE=5 RB=1700 BF=300 KF=4.8E-17 BR=1\n.MODEL QPI PNP IKF=3E-3 RC=380 IS=1.01E-16 VAF=290 RE=5 RB=1700 BF=306 KF=4.8E-17 BR=1\n.MODEL QNQ NPN IKF=5E-3 RC=25  KF=4.8E-17 BR=1\n.ENDS\n* END SPICE MODEL LM324
TEXT 320 672 Left 2 !;tran 0 .1 0 .01
TEXT 1240 -88 Left 2 !.ac dec 10 200 4000
