Version 4
SHEET 1 2084 4904
WIRE 320 -240 16 -240
WIRE 688 -240 400 -240
WIRE 256 -64 208 -64
WIRE 384 -64 336 -64
WIRE 112 0 112 -48
WIRE -496 16 -496 -96
WIRE -112 16 -176 16
WIRE 16 16 16 -240
WIRE 16 16 -32 16
WIRE 80 16 16 16
WIRE 592 16 592 -48
WIRE 208 32 208 -64
WIRE 208 32 144 32
WIRE 256 32 208 32
WIRE 384 32 384 -64
WIRE 384 32 320 32
WIRE 560 32 384 32
WIRE 80 48 -16 48
WIRE 688 48 688 -240
WIRE 688 48 624 48
WIRE 752 48 688 48
WIRE 560 64 464 64
WIRE -176 80 -176 16
WIRE 384 80 384 32
WIRE 112 128 112 64
WIRE -16 144 -16 48
WIRE 592 144 592 80
WIRE -496 160 -496 96
WIRE -416 160 -496 160
WIRE -416 192 -416 160
WIRE 384 224 384 160
WIRE -496 240 -496 160
WIRE 464 240 464 64
WIRE 560 240 464 240
WIRE 688 240 688 48
WIRE 688 240 640 240
WIRE -16 272 -16 224
WIRE 464 272 464 240
WIRE -496 400 -496 320
WIRE 464 400 464 352
FLAG 464 400 0
FLAG -176 80 0
FLAG 752 48 Vout
FLAG -16 272 0
FLAG -416 192 0
FLAG -496 400 -v
FLAG -496 -96 +v
FLAG 592 144 +v
FLAG 112 128 -v
FLAG 592 -48 -v
FLAG 112 -48 +v
FLAG 384 224 0
SYMBOL OpAmps\\UniversalOpAmp 112 32 R0
SYMATTR InstName U1
SYMATTR Value LM324
SYMBOL res -16 0 R90
WINDOW 0 0 56 VBottom 2
WINDOW 3 32 56 VTop 2
SYMATTR InstName Ri1
SYMATTR Value 10k
SYMBOL res 416 -256 R90
WINDOW 0 0 56 VBottom 2
WINDOW 3 32 56 VTop 2
SYMATTR InstName Rf1
SYMATTR Value 90k
SYMBOL OpAmps\\UniversalOpAmp 592 48 M180
SYMATTR InstName U2
SYMATTR Value LM6181/NS
SYMBOL res 448 256 R0
SYMATTR InstName R1
SYMATTR Value 21.8
SYMBOL res 656 224 R90
WINDOW 0 0 56 VBottom 2
WINDOW 3 32 56 VTop 2
SYMATTR InstName R2
SYMATTR Value 850
SYMBOL voltage -16 128 R0
WINDOW 123 24 44 Left 2
WINDOW 39 0 0 Left 0
WINDOW 3 24 44 Left 2
SYMATTR Value2 AC 1
SYMATTR Value ""
SYMATTR InstName V1
SYMBOL voltage -496 0 R0
WINDOW 123 0 0 Left 0
WINDOW 39 0 0 Left 0
SYMATTR InstName V2
SYMATTR Value 10
SYMBOL voltage -496 224 R0
WINDOW 123 0 0 Left 0
WINDOW 39 0 0 Left 0
SYMATTR InstName V3
SYMATTR Value 10
SYMBOL res 352 -80 R90
WINDOW 0 0 56 VBottom 2
WINDOW 3 32 56 VTop 2
SYMATTR InstName Rx
SYMATTR Value 1k
SYMBOL cap 320 16 R90
WINDOW 0 0 32 VBottom 2
WINDOW 3 32 32 VTop 2
SYMATTR InstName Cx
SYMATTR Value 31p
SYMBOL res 368 64 R0
SYMATTR InstName Ry
SYMATTR Value 1k
TEXT -528 472 Left 2 !;tran 200m
TEXT 888 8 Left 2 !.SUBCKT LM324 1 2 3 4 5 DUMMY\nR44 4 6 4E4\nI1 4 7 0.5E-6\nQ1 4 8 9 QPI\nQ2 4 2 10 QPA\nQ3 9 9 11 QPI\nQ4 10 10 11 QPI\nQ5 12 13 4 QNQ\nQ6 13 13 4 QNQ\nQ7 4 12 14 QPQ\nQ8 3 14 6 QNQ\nQ9 15 6 4 QNQ\nQ10 3 15 16 QNQ\nQ11 3 16 17 QNQ\nR67 17 16 4E4\nR68 5 17 18\nQ12 4 15 5 QPQ\nQ13 15 17 5 QNQ\nI2 18 3 120E-9\nI3 19 3 60E-9\nI4 20 3 1E-6\nQ14 11 18 3 QPQ\nQ15 14 19 3 QPQ\nQ16 5 7 4 QNQ\nQ17 15 20 3 QPQ\nC15 21 22 4.8E-12\nR69 12 21 3\nR70 12 15 3E9\nE2 23 8 3 0 -10E-6\nV51 23 1 1.56E-3\nI6 3 4 5E-6\nR71 4 3 4.5E5\nQ18 12 9 11 QPQ\nQ19 13 10 11 QPQ\nC17 12 13 8E-12\nC18 6 15 1E-12\nC21 3 24 100E-15\nR78 11 24 3E5\nC22 1 2 0.23E-12\nC23 2 0 0.79E-12\nC24 1 0 0.79E-12\nE3 22 0 15 0 2\nC25 5 0 50E-15\nQ20 25 25 0 QNQ\nG1 3 4 VT 0 3E-4\nI7 0 25 1E-3\nV53 25 26 0.25\nR79 0 26 1E6\nE4 VT 0 27 26 1\nR80 0 VT 1E6\nV54 27 0 0.55\nR81 0 27 1E6\n.MODEL QPQ PNP IKF=3E-3 RC=300 KF=4.8E-17 BR=1\n.MODEL QPA PNP IKF=3E-3 RC=380 IS=1.01E-16 VAF=245 RE=5 RB=1700 BF=300 KF=4.8E-17 BR=1\n.MODEL QPI PNP IKF=3E-3 RC=380 IS=1.01E-16 VAF=290 RE=5 RB=1700 BF=306 KF=4.8E-17 BR=1\n.MODEL QNQ NPN IKF=5E-3 RC=25  KF=4.8E-17 BR=1\n.ENDS\n* END SPICE MODEL LM324
TEXT -8 576 Left 2 !.SUBCKT LM6181/NS   1   2  99  50  40 DUMMY\n*\n*Features:                          (TYP.)\n*High bandwidth =                   100MHz\n*High slew rate =                 2000V/uS\n*Current Feedback Topology\n*NOTE:  Due to the addition of PSRR effects, model must be operated\n*       with symetrical supply voltages.  To avoid this limitation \n*       and disable the PSRR effects, see EOS below.\n*\n****************INPUT STAGE************** \n*\nGI1 99  5 POLY(1) 99 50 243.75U 2.708E-6\nGI2  4 50 POLY(1) 99 50 243.75U 2.708E-6\nFI1 99  5 VA3 100\nFI2  4 50 VA4 100\nQ1  50  3 5 QPN\nQ2  99  3 4 QNN \nGR1  5  6 5 6 2.38E-4\n*^4.2K noiseless resistor\nC1   6 99 .468P\nGR2  4  7 4 7 2.38E-4\n*^4.2K noiseless resistor\nC2   7 50 .468P\nGR3 99  8 99 8 1.58E-3\n*^633ohm noiseless resistor\nV1  99 10 .3\nRE1 10 30 130\nD1  30  8 DX\nGR4 50  9 50 9 1.58E-3\n*^633ohm noiseless resistor\nV2  11 50 .3\nRE2 11 31 150\nD2   9 31 DX\nQ3   8  6 2 QNI\nQ4   9  7 2 QPI\nDS1  3 12 DY\nVA3 12  5 0\nDS2 13  3 DY\nVA4  4 13 0\nGR6  1 99 1 99 5E-8\n*^20MEG noiseless resistor\nGR7  1 50 1 50 5E-8\n*^20MEG noiseless resistor\nGB1  1 99 POLY(2) 99 50 56  0 -1.2E-6 4E-8 1E-3\nFN1  1  0 V18 1\nGB2 99  2 POLY(3) 99 50 1 49 55 0 18.5E-6 -1.5E-7 -1E-7 -1E-6\nFN2  2  0 V17 1\nEOS  3  1 POLY(5) 99 50 45  0 47 0 57 0 59 61 -2.8E-3 9.3E-5 1 1 1 1\n*To run on asymetrical supplies, change to 0.................^.^\nCIN1 1  0 2P\nCIN2 2  0 3.75P\n*\n**************SECOND STAGE**************\n*\nI3  99 50 4.47M\nR8  99 49 7.19K\nR9  49 50 7.19K\nV3  99 16 1.7\nD3  15 16 DX\nD4  17 15 DX\nV4  17 50 2.0\nEH  99 98 99 49 1\nG1  98 15 POLY(2) 99 8 50 9 0 1.58E-3 1.58E-3\n*Fp1 = 27.96 KHz\nR5  98 15 2.372MEG\nC3  98 15 2.4P\n* \n***************POLE STAGE*************** \n*\n*Fp=250MHz\nG2  98 20 15 49 1E-3\nR14 98 20 1K\nC4  98 20 .692P\n*\n***************POLE STAGE*************** \n*\n*Fp=250 MHz\nG3  98 21 20 49 1E-3\nR15 98 21 1K\nC5  98 21 .692P\n*\n***************POLE STAGE*************** \n*\n*Fp=275 MHz\nG4  98 22 21 49 1E-3\nR16 98 22 1K\nC6  98 22 .5787P\n*\n***************POLE STAGE*************** \n*\n*Fp=500 MHz\nG5  98 23 22 49 1E-3\nR17 98 23 1K\nC7  98 23 .3183P\n*\n***************PSRR STAGE***************\n*\nG10  0 45 99 0 1.413E-4\nL3  44 45 26.53U\nR25 44  0 10\nG11  0 47 50 0 1.413E-4\nL4  46 47 2.27364U\nR26 46  0 10\n*\n************THERMAL EFFECTS*************\n*\nI12  0 55 1\nR27  0 55 10  TC=3.453E-3 7.93E-5\nI13  0 56 1E-3\nR28  0 56 1.5 TC=9.303E-4 8.075E-5\nI14  0 57 1E-3\nR29  0 57 3.34 TC=3.111E-3\n*\n************* NOISE SOURCES*************\n*\nV15 58  0 .1\nD9  58 59 DN\nR30 59  0 726.4\nV16 60  0 .1\nD10 60 61 DN\nR31 61  0 726.4\nV17 62  0 0\nR32 62  0 73.6\nV18 63  0 0\nR33 63  0 1840\n*\n**************OUTPUT STAGE**************\n*\nF6  99 50 VA7 1\nF5  99 35 VA8 1\nD7  36 35 DX\nVA7 99 36 0\nD8  35 99 DX\nE1  99 37 99 23 1\nVA8 37 38 0\nR35 38 40 50\nV5  33 40 5.3V\nD5  23 33 DX\nV6  40 34 5.3V\nD6  34 23 DX\nCF1 40  2 2.1P\n*\n***************MODELS USED**************\n*\n.MODEL QNI NPN(IS=1E-14 BF=10E4 VAF=62.9 KF=6.7E-14)\n.MODEL QPI PNP(IS=1E-14 BF=10E4 VAF=62.9 KF=6.7E-14)\n.MODEL QNN NPN(IS=1E-14 BF=10E4 VAF=62.9 KF=4.13E-13)\n.MODEL QPN PNP(IS=1E-14 BF=10E4 VAF=62.9 KF=4.13E-13)\n.MODEL DX  D(IS=1E-15)\n.MODEL DY  D(IS=1E-17)\n.MODEL DN  D(KF=1.667E-9 AF=1 XTI=0 EG=.3)\n*\n.ENDS\n*END SPICE MODEL LM6181/NS
TEXT -72 -448 Left 2 !.ac dec 10 1 1Giga
