Version 4
SHEET 1 1552 680
WIRE 32 -368 -80 -368
WIRE 208 -368 112 -368
WIRE 272 -368 208 -368
WIRE 560 -368 352 -368
WIRE 208 -288 208 -368
WIRE -80 -192 -80 -368
WIRE 96 -192 -80 -192
WIRE 208 -144 208 -208
WIRE 384 -64 192 -64
WIRE 96 16 96 -192
WIRE 96 16 32 16
WIRE 384 32 384 16
WIRE 192 112 192 -64
WIRE 560 112 560 -368
WIRE 560 112 288 112
WIRE -112 128 -240 128
WIRE 32 128 32 16
WIRE 32 128 -32 128
WIRE 128 128 32 128
WIRE -240 160 -240 128
WIRE 288 160 288 112
WIRE 288 160 256 160
WIRE 320 160 288 160
WIRE 128 192 64 192
WIRE -112 224 -160 224
WIRE 32 224 32 128
WIRE 32 224 -32 224
WIRE -160 240 -160 224
WIRE 192 256 192 208
WIRE 64 272 64 192
WIRE -240 288 -240 240
WIRE -160 368 -160 320
WIRE 192 384 192 336
FLAG -160 368 0
FLAG -240 288 0
FLAG 64 272 0
FLAG 320 160 Vout
IOPIN 320 160 Out
FLAG 384 32 0
FLAG 192 384 0
FLAG 208 -144 0
SYMBOL res -16 112 R90
WINDOW 0 0 56 VBottom 1
WINDOW 3 32 56 VTop 1
SYMATTR InstName R1
SYMATTR Value 1Mega
SYMBOL res -16 208 R90
WINDOW 0 0 56 VBottom 1
WINDOW 3 32 56 VTop 1
SYMATTR InstName R2
SYMATTR Value 1Mega
SYMBOL voltage -240 144 R0
WINDOW 0 24 16 Left 1
WINDOW 3 24 152 Left 1
WINDOW 123 24 124 Left 1
WINDOW 39 0 0 Left 0
SYMATTR InstName V1
SYMATTR Value PULSE(-0.1 0.1 0 1p 1p 500us 1000us)
SYMATTR Value2 AC 0
SYMBOL voltage -160 224 R0
WINDOW 0 24 16 Left 1
WINDOW 3 24 96 Left 1
WINDOW 123 24 124 Left 1
WINDOW 39 0 0 Left 0
SYMATTR InstName V2
SYMATTR Value ""
SYMATTR Value2 AC 0
SYMBOL AutoGenerated\\LMX24_LM2902 192 160 R0
SYMATTR InstName U1
SYMBOL voltage 384 -80 R0
WINDOW 123 0 0 Left 0
WINDOW 39 0 0 Left 0
SYMATTR InstName V3
SYMATTR Value 10
SYMBOL voltage 192 240 R0
SYMATTR InstName V4
SYMATTR Value -10
SYMBOL res 128 -384 R90
WINDOW 0 0 56 VBottom 2
WINDOW 3 32 56 VTop 2
SYMATTR InstName Rf2
SYMATTR Value 91k
SYMBOL res 368 -384 R90
WINDOW 0 0 56 VBottom 2
WINDOW 3 32 56 VTop 2
SYMATTR InstName Rf1
SYMATTR Value 390k
SYMBOL res 224 -192 R180
WINDOW 0 36 76 Left 2
WINDOW 3 36 40 Left 2
SYMATTR InstName Rf3
SYMATTR Value 1200
TEXT -272 392 Left 2 !;tran 0 0.015 0 0.001
TEXT -232 480 Left 2 !;ac dec 10 0.1 10Mega
TEXT 440 -392 Left 1 ;Vo
TEXT -56 -392 Left 1 ;If
TEXT 200 -400 Left 1 ;Vx
TEXT -216 552 Left 2 !.dc V1 -2 2 0.001
