Version 4
SHEET 1 880 680
WIRE 96 16 32 16
WIRE 288 16 176 16
WIRE 288 64 288 16
WIRE -112 128 -240 128
WIRE 32 128 32 16
WIRE 32 128 -32 128
WIRE 128 128 32 128
WIRE 320 160 256 160
WIRE 128 192 64 192
WIRE -240 224 -240 128
WIRE -112 224 -160 224
WIRE 32 224 32 128
WIRE 32 224 -32 224
WIRE 64 272 64 192
WIRE -160 304 -160 224
FLAG -160 304 0
FLAG -240 224 0
FLAG 64 272 0
FLAG 320 160 Vout
IOPIN 320 160 Out
FLAG 288 64 0
SYMBOL res -16 112 R90
WINDOW 0 0 56 VBottom 1
WINDOW 3 32 56 VTop 1
SYMATTR InstName R1
SYMBOL res -16 208 R90
WINDOW 0 0 56 VBottom 1
WINDOW 3 32 56 VTop 1
SYMATTR InstName R2
SYMBOL res 192 0 R90
WINDOW 0 0 56 VBottom 1
WINDOW 3 32 56 VTop 1
SYMATTR InstName Rf
SYMATTR Value Rf
SYMBOL AutoGenerated\\LMX24_LM2902 192 160 R0
SYMATTR InstName U1
TEXT 80 208 Left 1 ;Ipol+
TEXT 64 144 Left 1 ;Ipol-
