Version 4
SHEET 1 880 680
WIRE 96 16 32 16
WIRE 288 16 176 16
WIRE -112 128 -240 128
WIRE 32 128 32 16
WIRE 32 128 -32 128
WIRE 128 128 32 128
WIRE -240 160 -240 128
WIRE 288 160 288 16
WIRE 288 160 256 160
WIRE 320 160 288 160
WIRE 128 192 64 192
WIRE -112 224 -160 224
WIRE 32 224 32 128
WIRE 32 224 -32 224
WIRE -160 240 -160 224
WIRE 64 272 64 192
WIRE -240 288 -240 240
WIRE -160 368 -160 320
FLAG -160 368 0
FLAG -240 288 0
FLAG 64 272 0
FLAG 320 160 Vout
IOPIN 320 160 Out
SYMBOL res -16 112 R90
WINDOW 0 0 56 VBottom 1
WINDOW 3 32 56 VTop 1
SYMATTR InstName R1
SYMATTR Value 500
SYMBOL res -16 208 R90
WINDOW 0 0 56 VBottom 1
WINDOW 3 32 56 VTop 1
SYMATTR InstName R2
SYMATTR Value 500
SYMBOL res 192 0 R90
WINDOW 0 0 56 VBottom 1
WINDOW 3 32 56 VTop 1
SYMATTR InstName Rf
SYMATTR Value 15k
SYMBOL voltage -240 144 R0
WINDOW 0 24 16 Left 1
WINDOW 3 24 96 Left 1
WINDOW 123 24 124 Left 1
WINDOW 39 0 0 Left 0
SYMATTR InstName V1
SYMATTR Value SINE(0 0.1 5k)
SYMATTR Value2 AC 1
SYMBOL voltage -160 224 R0
WINDOW 0 24 16 Left 1
WINDOW 3 24 96 Left 1
WINDOW 123 24 124 Left 1
WINDOW 39 0 0 Left 0
SYMATTR InstName V2
SYMATTR Value SINE(0 0.1 5k)
SYMATTR Value2 AC 0
SYMBOL AutoGenerated\\LMX24_LM2902 192 160 R0
SYMATTR InstName U1
