Version 4
SHEET 1 1552 680
WIRE 48 -112 32 -112
WIRE 208 -112 128 -112
WIRE 288 -112 208 -112
WIRE 384 -112 368 -112
WIRE 208 -96 208 -112
WIRE 208 16 208 -16
WIRE -112 128 -240 128
WIRE 32 128 32 -112
WIRE 32 128 -32 128
WIRE 128 128 32 128
WIRE -240 160 -240 128
WIRE 384 160 384 -112
WIRE 384 160 256 160
WIRE 416 160 384 160
WIRE 128 192 64 192
WIRE -112 224 -160 224
WIRE 32 224 32 128
WIRE 32 224 -32 224
WIRE -160 240 -160 224
WIRE 64 272 64 192
WIRE -240 288 -240 240
WIRE -160 368 -160 320
FLAG -160 368 0
FLAG -240 288 0
FLAG 64 272 0
FLAG 416 160 Vout
IOPIN 416 160 Out
FLAG 208 16 0
SYMBOL res -16 112 R90
WINDOW 0 0 56 VBottom 1
WINDOW 3 32 56 VTop 1
SYMATTR InstName R1
SYMATTR Value 1Mega
SYMBOL res -16 208 R90
WINDOW 0 0 56 VBottom 1
WINDOW 3 32 56 VTop 1
SYMATTR InstName R2
SYMATTR Value 1Mega
SYMBOL voltage -240 144 R0
WINDOW 0 24 16 Left 1
WINDOW 3 24 96 Left 1
WINDOW 123 24 124 Left 1
WINDOW 39 0 0 Left 0
SYMATTR InstName V1
SYMATTR Value ""
SYMATTR Value2 AC 1
SYMBOL voltage -160 224 R0
WINDOW 0 24 16 Left 1
WINDOW 3 24 96 Left 1
WINDOW 123 24 124 Left 1
WINDOW 39 0 0 Left 0
SYMATTR InstName V2
SYMATTR Value ""
SYMATTR Value2 AC 0
SYMBOL AutoGenerated\\LMX24_LM2902 192 160 R0
SYMATTR InstName U1
SYMBOL res 144 -128 R90
WINDOW 0 0 56 VBottom 2
WINDOW 3 32 56 VTop 2
SYMATTR InstName Rf2
SYMATTR Value 91k
SYMBOL res 384 -128 R90
WINDOW 0 0 56 VBottom 2
WINDOW 3 32 56 VTop 2
SYMATTR InstName Rf1
SYMATTR Value 390k
SYMBOL res 224 0 R180
WINDOW 0 36 76 Left 2
WINDOW 3 33 43 Left 2
SYMATTR InstName Rf3
SYMATTR Value 1.2k
TEXT -648 504 Left 2 !;tran 0 0.01 0 0.001
TEXT -232 480 Left 2 !;ac dec 10 0.01 10Mega
TEXT 392 -144 Left 1 ;Vo
TEXT 48 -16 Left 1 ;If
TEXT 192 -144 Left 1 ;Vx
TEXT 208 376 Left 2 !.dc dec V1 0.01 10Mega 10
